  Page 1                                    Wed Apr 22 16:03:19 2026

  ******************************************************************
  *                           E P A N E T                          *
  *                   Hydraulic and Water Quality                  *
  *                   Analysis for Pipe Networks                   *
  *                         Version 2.2                            *
  ******************************************************************
  
  Analysis begun Wed Apr 22 16:03:19 2026

   
  Hydraulic Status:
  -----------------------------------------------------------------------
     0:00:00: Balanced after 3 trials
     0:00:00: Reservoir Rs1 is emptying
   
  Analysis ended Wed Apr 22 16:03:19 2026
