  Page 1                                    Thu May 07 10:56:12 2026

  ******************************************************************
  *                           E P A N E T                          *
  *                   Hydraulic and Water Quality                  *
  *                   Analysis for Pipe Networks                   *
  *                         Version 2.2                            *
  ******************************************************************
  
  Analysis begun Thu May 07 10:56:12 2026

   
  Hydraulic Status:
  -----------------------------------------------------------------------
     0:00:00: Balanced after 4 trials
     0:00:00: Reservoir Rs1 is emptying
   
  WARNING: Negative pressures at 0:00:00 hrs.
   
  Analysis ended Thu May 07 10:56:12 2026
